Version 4
SHEET 1 2152 732
WIRE -256 -960 -400 -960
WIRE -656 -912 -656 -992
WIRE -400 -912 -400 -960
WIRE -656 -768 -656 -816
WIRE -608 -768 -656 -768
WIRE -400 -768 -400 -816
WIRE -400 -768 -448 -768
WIRE -528 -736 -528 -768
WIRE -1200 -576 -1200 -592
WIRE -1200 -576 -1248 -576
WIRE -1008 -576 -1008 -592
WIRE -944 -576 -1008 -576
WIRE -1200 -560 -1200 -576
WIRE -1008 -560 -1008 -576
WIRE 96 -512 -208 -512
WIRE -368 -464 -608 -464
WIRE -304 -336 -304 -416
WIRE -304 -336 -464 -336
WIRE -608 -288 -608 -464
WIRE -304 -288 -304 -336
WIRE -464 -240 -464 -336
WIRE -464 -240 -672 -240
WIRE -368 -240 -464 -240
FLAG -1072 -912 0
FLAG -912 -912 0
FLAG -1072 -992 -15
FLAG -912 -992 +15
FLAG -608 -544 +15
FLAG -608 -192 -15
FLAG -304 -192 -15
FLAG 96 -432 -15
FLAG -256 -960 Vo
FLAG -656 -992 +15
FLAG -400 -1040 +15
FLAG 304 -416 0
FLAG 704 -416 0
FLAG -304 -512 Iee
FLAG -528 -736 Iee
FLAG -1248 -576 Vod+
FLAG -944 -576 Vod-
FLAG -1200 -480 -15
FLAG -1008 -480 -15
FLAG -1008 -672 +15
FLAG -1200 -672 +15
FLAG -336 -864 Vod+
FLAG -720 -864 Vod-
SYMBOL npn -368 -288 R0
SYMATTR InstName Q2
SYMATTR Value BC547B
SYMBOL voltage -1072 -1008 R0
WINDOW 123 0 0 Left 0
WINDOW 39 0 0 Left 0
SYMATTR InstName V1
SYMATTR Value -15
SYMBOL voltage -912 -1008 R0
WINDOW 123 0 0 Left 0
WINDOW 39 0 0 Left 0
SYMATTR InstName V2
SYMATTR Value 15
SYMBOL npn -672 -288 R0
SYMATTR InstName Q1
SYMATTR Value BC547B
SYMBOL npn -368 -512 R0
SYMATTR InstName Q3
SYMATTR Value BC547B
SYMBOL res -624 -560 R0
SYMATTR InstName R1
SYMATTR Value 27k
SYMBOL voltage 96 -528 R0
WINDOW 123 0 0 Left 0
WINDOW 39 0 0 Left 0
SYMATTR InstName V3
SYMATTR Value ""
SYMBOL npn -336 -912 M0
SYMATTR InstName Q4
SYMATTR Value BC547B
SYMBOL npn -720 -912 R0
SYMATTR InstName Q5
SYMATTR Value BC547B
SYMBOL res -416 -1056 R0
SYMATTR InstName R2
SYMATTR Value 16k
SYMBOL voltage 304 -512 R0
WINDOW 123 0 0 Left 0
WINDOW 39 0 0 Left 0
SYMATTR InstName V4
SYMATTR Value SINE(0 0.5m 50 0 0 0)
SYMBOL voltage 704 -512 R0
WINDOW 123 0 0 Left 0
WINDOW 39 0 0 Left 0
SYMATTR InstName V5
SYMATTR Value SINE(0 0.5m 50 0 0 0)
SYMBOL res 400 -512 R90
WINDOW 0 0 56 VBottom 2
WINDOW 3 32 56 VTop 2
SYMATTR InstName R3
SYMATTR Value 1
SYMBOL res 720 -512 R90
WINDOW 0 0 56 VBottom 2
WINDOW 3 32 56 VTop 2
SYMATTR InstName R4
SYMATTR Value 1
SYMBOL res -1216 -688 R0
SYMATTR InstName R5
SYMATTR Value 680
SYMBOL res -1216 -576 R0
SYMATTR InstName R6
SYMATTR Value {R}
SYMBOL res -1024 -688 R0
SYMATTR InstName R7
SYMATTR Value 680
SYMBOL res -1024 -576 R0
SYMATTR InstName R8
SYMATTR Value 680
SYMBOL res -512 -784 R90
WINDOW 0 0 56 VBottom 2
WINDOW 3 32 56 VTop 2
SYMATTR InstName R9
SYMATTR Value 1000
SYMBOL res -432 -784 R90
WINDOW 0 0 56 VBottom 2
WINDOW 3 32 56 VTop 2
SYMATTR InstName R10
SYMATTR Value 1000
TEXT -128 -440 Left 2 !;.dc V3 0 30 0.1
TEXT -1208 -360 Left 2 !.step param R 680 698 1
TEXT -1200 -312 Left 2 !.op
TEXT -1328 -104 Left 2 !;.tran 0 1 0 0.001
TEXT -200 -336 Left 2 ;check output impedence of current source by connecting V3 and checking I_ee
