Version 4
SHEET 1 880 680
WIRE 256 0 224 0
WIRE 320 0 256 0
WIRE 144 48 144 0
WIRE 256 128 256 0
WIRE 320 128 256 128
WIRE 400 144 400 0
WIRE 400 144 384 144
WIRE 496 144 400 144
WIRE 320 160 96 160
WIRE 96 192 96 160
WIRE 96 304 96 272
WIRE 352 448 320 448
WIRE 464 448 432 448
WIRE 480 448 464 448
WIRE 592 448 560 448
WIRE 464 496 464 448
FLAG 96 384 0
FLAG 144 48 0
FLAG 496 144 Output
FLAG 96 160 Input
FLAG 464 496 0
FLAG 320 448 -12
FLAG 592 448 +12
FLAG 352 176 -12
FLAG 352 112 +12
SYMBOL voltage 96 176 R0
WINDOW 123 0 0 Left 0
WINDOW 39 0 0 Left 0
SYMATTR InstName V1
SYMATTR Value 0.5
SYMBOL Opamps\\opamp2 352 80 R0
SYMATTR InstName U1
SYMATTR Value TL072
SYMBOL voltage 96 288 R0
WINDOW 123 0 0 Left 0
WINDOW 39 0 0 Left 0
SYMATTR InstName V2
SYMATTR Value 0.5
SYMBOL res 240 -16 R90
WINDOW 0 0 56 VBottom 2
WINDOW 3 32 56 VTop 2
SYMATTR InstName R2
SYMATTR Value 10k
SYMBOL res 416 -16 R90
WINDOW 0 0 56 VBottom 2
WINDOW 3 32 56 VTop 2
SYMATTR InstName R1
SYMATTR Value 10k
SYMBOL voltage 448 448 R90
WINDOW 0 -32 56 VBottom 2
WINDOW 3 32 56 VTop 2
SYMATTR InstName V3
SYMBOL voltage 576 448 R90
WINDOW 0 -32 56 VBottom 2
WINDOW 3 32 56 VTop 2
SYMATTR InstName V4
TEXT 336 328 Left 2 !.tran 0 1 0.5 0.1
TEXT 336 280 Left 2 !.inc TL072.mod
