Version 4
SHEET 1 1332 680
WIRE 48 -128 16 -128
WIRE 112 -128 48 -128
WIRE 880 -128 656 -128
WIRE 1072 -128 944 -128
WIRE -64 -80 -64 -128
WIRE 48 0 48 -128
WIRE 112 0 48 0
WIRE 192 16 192 -128
WIRE 192 16 176 16
WIRE 512 16 512 -48
WIRE 512 16 192 16
WIRE 544 16 512 16
WIRE 656 16 656 -128
WIRE 656 16 624 16
WIRE 672 16 656 16
WIRE 848 16 752 16
WIRE 912 16 848 16
WIRE 112 32 -112 32
WIRE 1072 32 1072 -128
WIRE 1072 32 976 32
WIRE 1184 32 1184 -64
WIRE 1184 32 1072 32
WIRE 912 48 896 48
WIRE -112 64 -112 32
WIRE 848 64 848 16
WIRE 896 128 896 48
WIRE 1072 128 1072 32
WIRE 1072 128 896 128
WIRE -112 176 -112 144
WIRE 848 176 848 128
WIRE 144 320 112 320
WIRE 256 320 224 320
WIRE 272 320 256 320
WIRE 384 320 352 320
WIRE 256 368 256 320
FLAG -112 256 0
FLAG -64 -80 0
FLAG -112 32 Input
FLAG 256 368 0
FLAG 112 320 -V
FLAG 384 320 +V
FLAG 144 48 -V
FLAG 144 -16 +V
FLAG 848 176 0
FLAG 512 -48 AmpliifedAndOffset
FLAG 1184 -64 Ouput
FLAG 944 0 V+
FLAG 944 64 V-
SYMBOL voltage -112 48 R0
WINDOW 123 0 0 Left 0
WINDOW 39 0 0 Left 0
SYMATTR InstName V1
SYMATTR Value SINE(0 0.5 10)
SYMBOL Opamps\\opamp2 144 -48 R0
SYMATTR InstName U1
SYMATTR Value TL072
SYMBOL voltage -112 160 R0
WINDOW 123 0 0 Left 0
WINDOW 39 0 0 Left 0
SYMATTR InstName V2
SYMATTR Value 0.5
SYMBOL res 32 -144 R90
WINDOW 0 0 56 VBottom 2
WINDOW 3 32 56 VTop 2
SYMATTR InstName R1
SYMATTR Value 10k
SYMBOL res 208 -144 R90
WINDOW 0 0 56 VBottom 2
WINDOW 3 32 56 VTop 2
SYMATTR InstName R2
SYMATTR Value 26k
SYMBOL voltage 240 320 R90
WINDOW 0 -32 56 VBottom 2
WINDOW 3 32 56 VTop 2
WINDOW 123 0 0 Left 0
WINDOW 39 0 0 Left 0
SYMATTR InstName V3
SYMATTR Value 12
SYMBOL voltage 368 320 R90
WINDOW 0 -32 56 VBottom 2
WINDOW 3 32 56 VTop 2
WINDOW 123 0 0 Left 0
WINDOW 39 0 0 Left 0
SYMATTR InstName V4
SYMATTR Value 12
SYMBOL res 640 0 R90
WINDOW 0 0 56 VBottom 2
WINDOW 3 32 56 VTop 2
SYMATTR InstName R3
SYMATTR Value 10610
SYMBOL res 768 0 R90
WINDOW 0 0 56 VBottom 2
WINDOW 3 32 56 VTop 2
SYMATTR InstName R4
SYMATTR Value 10610
SYMBOL cap 864 128 R180
WINDOW 0 24 56 Left 2
WINDOW 3 24 8 Left 2
SYMATTR InstName C1
SYMATTR Value 0.1µ
SYMBOL cap 880 -112 R270
WINDOW 0 32 32 VTop 2
WINDOW 3 0 32 VBottom 2
SYMATTR InstName C2
SYMATTR Value 0.1µ
SYMBOL Opamps\\opamp2 944 -32 R0
SYMATTR InstName U2
SYMATTR Value TL072
TEXT 272 160 Left 2 !.tran 0 1 0.5 0.2
TEXT 600 304 Left 2 !.inc TL072.mod
