Version 4
SHEET 1 2532 912
WIRE 288 192 288 160
WIRE 432 192 288 192
WIRE 688 192 496 192
WIRE 704 192 688 192
WIRE 288 224 288 192
WIRE -80 272 -368 272
WIRE 16 272 16 160
WIRE 16 272 -16 272
WIRE 224 272 16 272
WIRE 288 400 288 320
WIRE 16 416 16 272
FLAG -160 -192 0
FLAG 0 -192 0
FLAG -160 -272 -Vcc
FLAG 0 -272 +Vcc
FLAG 336 -208 0
FLAG 256 -288 Vin+
FLAG 16 80 +Vcc
FLAG 288 80 +Vcc
FLAG 16 496 -Vcc
FLAG 288 480 -Vcc
FLAG 688 192 Vout
FLAG -368 272 Vin+
SYMBOL voltage -160 -288 R0
WINDOW 123 0 0 Left 0
WINDOW 39 0 0 Left 0
SYMATTR InstName V1
SYMATTR Value -12
SYMBOL voltage 0 -288 R0
WINDOW 123 0 0 Left 0
WINDOW 39 0 0 Left 0
SYMATTR InstName V2
SYMATTR Value 12
SYMBOL voltage 336 -304 R0
WINDOW 123 24 44 Left 2
WINDOW 39 0 0 Left 0
SYMATTR Value2 AC 1m
SYMATTR InstName V3
SYMATTR Value SINE(0 1m 1000 0 0)
SYMBOL res 352 -304 R90
WINDOW 0 0 56 VBottom 2
WINDOW 3 32 56 VTop 2
SYMATTR InstName R1
SYMATTR Value 1
SYMBOL npn 224 224 R0
SYMATTR InstName Q1
SYMATTR Value BC547B
SYMBOL res 272 64 R0
SYMATTR InstName R5
SYMATTR Value 1.6k
SYMBOL res 272 384 R0
SYMATTR InstName R6
SYMATTR Value 200
SYMBOL res 0 400 R0
SYMATTR InstName R7
SYMATTR Value 2000k
SYMBOL res 0 64 R0
SYMATTR InstName R8
SYMATTR Value 666k
SYMBOL cap 496 176 R90
WINDOW 0 0 32 VBottom 2
WINDOW 3 32 32 VTop 2
SYMATTR InstName C2
SYMATTR Value 1µ
SYMBOL cap -16 256 R90
WINDOW 0 0 32 VBottom 2
WINDOW 3 32 32 VTop 2
SYMATTR InstName C6
SYMATTR Value 1µ
TEXT -576 -192 Left 2 !.tran 0 0.1 0 0.001
TEXT -576 -144 Left 2 !;.ac dec 10 1 100k
TEXT -472 16 Left 2 ;Z_in ~ 80k\nZ_out ~ Rc
