Version 4
SHEET 1 4084 732
WIRE 2432 -1424 2432 -1472
WIRE 880 -1392 880 -1440
WIRE -1872 -1360 -1872 -1408
WIRE -608 -1360 -608 -1408
WIRE -2448 -1328 -2448 -1360
WIRE -2448 -1328 -2624 -1328
WIRE -2288 -1328 -2448 -1328
WIRE 1920 -1328 1920 -1360
WIRE 2064 -1328 1920 -1328
WIRE 2336 -1328 2128 -1328
WIRE 2704 -1328 2704 -1520
WIRE -2624 -1296 -2624 -1328
WIRE -2288 -1296 -2288 -1328
WIRE 368 -1296 368 -1328
WIRE 512 -1296 368 -1296
WIRE 784 -1296 576 -1296
WIRE 1152 -1296 1152 -1488
WIRE 1920 -1296 1920 -1328
WIRE 2880 -1280 2848 -1280
WIRE 3136 -1280 2944 -1280
WIRE 3280 -1280 3136 -1280
WIRE -1600 -1264 -1600 -1456
WIRE -1120 -1264 -1120 -1296
WIRE -976 -1264 -1120 -1264
WIRE -848 -1264 -912 -1264
WIRE -704 -1264 -848 -1264
WIRE -336 -1264 -336 -1456
WIRE 368 -1264 368 -1296
WIRE 1360 -1248 1296 -1248
WIRE 1392 -1248 1360 -1248
WIRE 1648 -1248 1648 -1360
WIRE 1648 -1248 1424 -1248
WIRE 1856 -1248 1648 -1248
WIRE 2336 -1248 2336 -1328
WIRE 2432 -1248 2432 -1344
WIRE 2432 -1248 2336 -1248
WIRE 2656 -1248 2432 -1248
WIRE -1120 -1232 -1120 -1264
WIRE 96 -1216 96 -1328
WIRE 96 -1216 -128 -1216
WIRE 304 -1216 96 -1216
WIRE 784 -1216 784 -1296
WIRE 880 -1216 880 -1312
WIRE 880 -1216 784 -1216
WIRE 1104 -1216 880 -1216
WIRE 2704 -1216 2704 -1232
WIRE 2848 -1216 2848 -1280
WIRE 2848 -1216 2704 -1216
WIRE -1872 -1184 -1872 -1280
WIRE -1872 -1184 -2032 -1184
WIRE -1648 -1184 -1872 -1184
WIRE -1488 -1184 -1648 -1184
WIRE -1392 -1184 -1392 -1296
WIRE -1392 -1184 -1424 -1184
WIRE -1184 -1184 -1392 -1184
WIRE -704 -1184 -704 -1264
WIRE -608 -1184 -608 -1280
WIRE -608 -1184 -704 -1184
WIRE -384 -1184 -608 -1184
WIRE 1152 -1184 1152 -1200
WIRE 1296 -1184 1296 -1248
WIRE 1296 -1184 1152 -1184
WIRE 2432 -1184 2432 -1248
WIRE 2704 -1184 2704 -1216
WIRE -2288 -1168 -2288 -1216
WIRE -2128 -1168 -2288 -1168
WIRE -2032 -1168 -2032 -1184
WIRE -2032 -1168 -2064 -1168
WIRE -2624 -1152 -2624 -1216
WIRE -2288 -1152 -2288 -1168
WIRE -336 -1152 -336 -1168
WIRE -192 -1152 -192 -1216
WIRE -192 -1152 -336 -1152
WIRE 880 -1152 880 -1216
WIRE 1152 -1152 1152 -1184
WIRE -1872 -1120 -1872 -1184
WIRE -1600 -1120 -1600 -1168
WIRE -608 -1120 -608 -1184
WIRE -336 -1120 -336 -1152
WIRE 1920 -1120 1920 -1200
WIRE 1648 -1104 1648 -1248
WIRE 368 -1088 368 -1168
WIRE 96 -1072 96 -1216
WIRE -1120 -1056 -1120 -1136
WIRE -1392 -1040 -1392 -1184
WIRE 3136 -992 3136 -1280
WIRE -2624 -960 -2624 -1056
WIRE -2592 -960 -2624 -960
WIRE -2464 -960 -2512 -960
WIRE -2400 -960 -2464 -960
WIRE -2288 -960 -2288 -1056
WIRE -2288 -960 -2320 -960
WIRE 3136 -864 3136 -912
WIRE 3232 -864 3136 -864
WIRE -2464 -832 -2464 -960
WIRE 3136 -816 3136 -864
FLAG -816 -1760 0
FLAG -656 -1760 0
FLAG -816 -1840 -Vcc
FLAG -656 -1840 +Vcc
FLAG -320 -1776 0
FLAG -400 -1856 Vin+
FLAG -608 -1408 +Vcc
FLAG -336 -1456 +Vcc
FLAG -1392 -1376 +Vcc
FLAG -1120 -1376 +Vcc
FLAG -2448 -1360 +Vcc
FLAG 3136 -736 0
FLAG 3232 -864 Vin-
FLAG -2464 -752 -Vcc
FLAG -1392 -960 -Vcc
FLAG -1120 -976 -Vcc
FLAG -608 -1040 -Vcc
FLAG -336 -1040 -Vcc
FLAG -2336 -1072 Vin+
FLAG 880 -1440 +Vcc
FLAG 1152 -1488 +Vcc
FLAG 96 -1408 +Vcc
FLAG 368 -1408 +Vcc
FLAG 96 -992 -Vcc
FLAG 368 -1008 -Vcc
FLAG 880 -1072 -Vcc
FLAG 1152 -1072 -Vcc
FLAG -2672 -1072 Vin-
FLAG -1872 -1408 +Vcc
FLAG -1600 -1456 +Vcc
FLAG -1872 -1040 -Vcc
FLAG -1600 -1040 -Vcc
FLAG 736 -464 Vout
FLAG 2432 -1472 +Vcc
FLAG 2704 -1520 +Vcc
FLAG 1648 -1440 +Vcc
FLAG 1920 -1440 +Vcc
FLAG 1648 -1024 -Vcc
FLAG 1920 -1040 -Vcc
FLAG 2432 -1104 -Vcc
FLAG 2704 -1104 -Vcc
FLAG -848 -1200 0
SYMBOL voltage -816 -1856 R0
WINDOW 123 0 0 Left 0
WINDOW 39 0 0 Left 0
SYMATTR InstName V1
SYMATTR Value -12
SYMBOL voltage -656 -1856 R0
WINDOW 123 0 0 Left 0
WINDOW 39 0 0 Left 0
SYMATTR InstName V2
SYMATTR Value 12
SYMBOL voltage -320 -1872 R0
WINDOW 123 24 44 Left 2
WINDOW 39 0 0 Left 0
SYMATTR Value2 AC 1 0
SYMATTR InstName V5
SYMATTR Value SINE(0 1m 1000 0 0)
SYMBOL res -304 -1872 R90
WINDOW 0 0 56 VBottom 2
WINDOW 3 32 56 VTop 2
SYMATTR InstName R4
SYMATTR Value 1
SYMBOL nmos -384 -1264 R0
SYMATTR InstName M10
SYMATTR Value BS170
SYMBOL res -624 -1376 R0
SYMATTR InstName R36
SYMATTR Value 1Meg
SYMBOL res -624 -1136 R0
SYMATTR InstName R37
SYMATTR Value 1.6Meg
SYMBOL res -352 -1136 R0
SYMATTR InstName R38
SYMATTR Value 100
SYMBOL npn -1184 -1232 R0
SYMATTR InstName Q1
SYMATTR Value BC547B
SYMBOL res -1136 -1392 R0
SYMATTR InstName R1
SYMATTR Value 2k
SYMBOL res -1136 -1072 R0
SYMATTR InstName R2
SYMATTR Value 200
SYMBOL res -1408 -1056 R0
SYMATTR InstName R3
SYMATTR Value 666k
SYMBOL res -1408 -1392 R0
SYMATTR InstName R5
SYMATTR Value 2000k
SYMBOL cap -912 -1280 R90
WINDOW 0 0 32 VBottom 2
WINDOW 3 32 32 VTop 2
SYMATTR InstName C3
SYMATTR Value 5n
SYMBOL nmos -2672 -1152 R0
SYMATTR InstName M2
SYMATTR Value BS170
SYMBOL res -2304 -1312 R0
SYMATTR InstName R6
SYMATTR Value 14k
SYMBOL res -2640 -1312 R0
SYMATTR InstName R7
SYMATTR Value 14k
SYMBOL current -2464 -832 R0
WINDOW 0 24 80 Left 2
WINDOW 3 24 0 Left 2
WINDOW 123 0 0 Left 0
WINDOW 39 0 0 Left 0
SYMATTR InstName I1
SYMATTR Value 1m
SYMBOL nmos -2336 -1152 R0
SYMATTR InstName M1
SYMATTR Value BS170
SYMBOL res 3120 -1008 R0
SYMATTR InstName R16
SYMATTR Value 10k
SYMBOL res 3120 -832 R0
SYMATTR InstName R17
SYMATTR Value 1k
SYMBOL res -2496 -976 R90
WINDOW 0 0 56 VBottom 2
WINDOW 3 32 56 VTop 2
SYMATTR InstName R18
SYMATTR Value 500
SYMBOL res -2304 -976 R90
WINDOW 0 0 56 VBottom 2
WINDOW 3 32 56 VTop 2
SYMATTR InstName R19
SYMATTR Value 500
SYMBOL cap -128 -1232 R90
WINDOW 0 0 32 VBottom 2
WINDOW 3 32 32 VTop 2
SYMATTR InstName C8
SYMATTR Value 42n
SYMBOL nmos 1104 -1296 R0
SYMATTR InstName M3
SYMATTR Value BS170
SYMBOL res 864 -1408 R0
SYMATTR InstName R8
SYMATTR Value 1Meg
SYMBOL res 864 -1168 R0
SYMATTR InstName R9
SYMATTR Value 1.6Meg
SYMBOL res 1136 -1168 R0
SYMATTR InstName R10
SYMATTR Value 100
SYMBOL npn 304 -1264 R0
SYMATTR InstName Q2
SYMATTR Value BC547B
SYMBOL res 352 -1424 R0
SYMATTR InstName R11
SYMATTR Value 2k
SYMBOL res 352 -1104 R0
SYMATTR InstName R12
SYMATTR Value 200
SYMBOL res 80 -1088 R0
SYMATTR InstName R13
SYMATTR Value 666k
SYMBOL res 80 -1424 R0
SYMATTR InstName R14
SYMATTR Value 2000k
SYMBOL cap 576 -1312 R90
WINDOW 0 0 32 VBottom 2
WINDOW 3 32 32 VTop 2
SYMATTR InstName C6
SYMATTR Value 1µ
SYMBOL nmos -1648 -1264 R0
SYMATTR InstName M4
SYMATTR Value BS170
SYMBOL res -1888 -1376 R0
SYMATTR InstName R15
SYMATTR Value 1Meg
SYMBOL res -1888 -1136 R0
SYMATTR InstName R20
SYMATTR Value 1.6Meg
SYMBOL res -1616 -1136 R0
SYMATTR InstName R21
SYMATTR Value 100
SYMBOL cap -2064 -1184 R90
WINDOW 0 0 32 VBottom 2
WINDOW 3 32 32 VTop 2
SYMATTR InstName C1
SYMATTR Value 5n
SYMBOL cap -1424 -1200 R90
WINDOW 0 0 32 VBottom 2
WINDOW 3 32 32 VTop 2
SYMATTR InstName C2
SYMATTR Value 50n
SYMBOL cap 1424 -1264 R90
WINDOW 0 0 32 VBottom 2
WINDOW 3 32 32 VTop 2
SYMATTR InstName C4
SYMATTR Value 42n
SYMBOL nmos 2656 -1328 R0
SYMATTR InstName M5
SYMATTR Value BS170
SYMBOL res 2416 -1440 R0
SYMATTR InstName R22
SYMATTR Value 1Meg
SYMBOL res 2416 -1200 R0
SYMATTR InstName R23
SYMATTR Value 1.65Meg
SYMBOL res 2688 -1200 R0
SYMATTR InstName R24
SYMATTR Value 100
SYMBOL npn 1856 -1296 R0
SYMATTR InstName Q3
SYMATTR Value BC547B
SYMBOL res 1904 -1456 R0
SYMATTR InstName R25
SYMATTR Value 2k
SYMBOL res 1904 -1136 R0
SYMATTR InstName R26
SYMATTR Value 200
SYMBOL res 1632 -1120 R0
SYMATTR InstName R27
SYMATTR Value 666k
SYMBOL res 1632 -1456 R0
SYMATTR InstName R28
SYMATTR Value 2000k
SYMBOL cap 2128 -1344 R90
WINDOW 0 0 32 VBottom 2
WINDOW 3 32 32 VTop 2
SYMATTR InstName C5
SYMATTR Value 1µ
SYMBOL cap 2944 -1296 R90
WINDOW 0 0 32 VBottom 2
WINDOW 3 32 32 VTop 2
SYMATTR InstName C7
SYMATTR Value 42n
SYMBOL cap -864 -1264 R0
SYMATTR InstName C9
SYMATTR Value 100n
TEXT -1232 -1760 Left 2 !;tran 0 1 0 0.001
TEXT -1624 -2048 Left 2 !.model BS170 VDMOS VTO=2.33 RG=270 RS=1.572 RD=1.436 RB=.768 KP=0.08 W=1 L=1 Cgdmax=20p Cgdmin=3p CGS=28p Cjo=35p Rds=1.2E8 IS=5p Bv=60 Ibv=10u Tt=161.6n
TEXT -1184 -1656 Left 2 !.ac dec 100 0.001 1000k
