Version 4
SHEET 1 4084 732
WIRE -1440 -1104 -1440 -1152
WIRE 1152 -1056 1152 -1104
WIRE -1168 -1008 -1168 -1200
WIRE 1088 -1008 720 -1008
WIRE -464 -992 -608 -992
WIRE -64 -992 -208 -992
WIRE 464 -960 464 -1040
WIRE 720 -960 720 -1008
WIRE -464 -944 -464 -992
WIRE -208 -944 -208 -992
WIRE -1504 -928 -1520 -928
WIRE -1440 -928 -1440 -1024
WIRE -1216 -928 -1440 -928
WIRE 1152 -928 1152 -960
WIRE 1376 -928 1152 -928
WIRE -1168 -896 -1168 -912
WIRE -1024 -896 -1168 -896
WIRE -608 -896 -672 -896
WIRE 0 -896 -64 -896
WIRE 1152 -896 1152 -928
WIRE -1440 -864 -1440 -928
WIRE -1168 -864 -1168 -896
WIRE 1440 -848 1440 -880
WIRE 1648 -848 1440 -848
WIRE 464 -816 464 -864
WIRE 512 -816 464 -816
WIRE 720 -816 720 -864
WIRE 720 -816 672 -816
WIRE 1440 -816 1440 -848
WIRE -464 -800 -464 -848
WIRE -416 -800 -464 -800
WIRE -208 -800 -208 -848
WIRE -208 -800 -256 -800
WIRE -336 -720 -336 -800
WIRE 592 -720 592 -816
WIRE 3280 -688 3024 -688
WIRE 3024 -576 3024 -608
WIRE 3024 -576 2928 -576
WIRE 3280 -576 3280 -608
WIRE 3392 -576 3280 -576
WIRE 3024 -560 3024 -576
WIRE 3280 -560 3280 -576
WIRE 3024 -416 3024 -464
WIRE 3152 -416 3104 -416
WIRE 3200 -416 3152 -416
WIRE 3280 -416 3280 -464
WIRE -560 -320 -560 -448
WIRE -416 -320 -560 -320
WIRE -560 -272 -560 -320
WIRE -416 -224 -416 -320
WIRE -416 -224 -624 -224
WIRE -320 -224 -416 -224
WIRE 512 -224 -320 -224
WIRE 528 -224 512 -224
WIRE 3728 -176 3728 -224
WIRE 1712 -128 1472 -128
WIRE -256 -96 -560 -96
WIRE -16 -96 -256 -96
WIRE 576 -96 -16 -96
WIRE 4000 -80 4000 -272
WIRE -16 -64 -16 -96
WIRE 2896 -64 2896 -112
WIRE 3024 -64 2896 -64
WIRE 3152 -64 3152 -416
WIRE 1776 0 1776 -80
WIRE 1776 0 1616 0
WIRE 3664 0 3648 0
WIRE 3728 0 3728 -96
WIRE 3952 0 3728 0
WIRE 3024 16 3024 -64
WIRE 3024 16 2848 16
WIRE 3104 16 3024 16
WIRE 1472 48 1472 -128
WIRE 1776 48 1776 0
WIRE 2896 64 2896 32
WIRE 3152 64 3152 32
WIRE 3152 64 2896 64
WIRE 3728 64 3728 0
WIRE 4000 64 4000 16
WIRE 1616 96 1616 0
WIRE 1616 96 1408 96
WIRE 1712 96 1616 96
WIRE 3152 112 3152 64
WIRE 1472 192 1472 144
WIRE 1616 192 1472 192
WIRE 1776 192 1776 144
WIRE 1776 192 1616 192
WIRE 1616 224 1616 192
FLAG -64 -1392 0
FLAG 96 -1392 0
FLAG -64 -1472 -Vcc
FLAG 96 -1472 +Vcc
FLAG 432 -1408 0
FLAG 352 -1488 Vod+
FLAG 1664 256 -Vcc
FLAG 1456 -272 +Vcc
FLAG -464 -1072 +Vcc
FLAG -208 -1072 +Vcc
FLAG 464 -1040 +Vcc
FLAG 720 -1088 +Vcc
FLAG 2880 -224 +Vcc
FLAG 3120 -752 +Vcc
FLAG 2928 -576 V_o_fet-
FLAG 3392 -576 V_o_fet+
FLAG 3200 160 -Vcc
FLAG 0 -896 V_o_fet
FLAG -64 -992 V_o2
FLAG -608 -992 V_o1
FLAG -672 -896 0
FLAG -560 -528 +Vcc
FLAG -256 -272 I_ee1
FLAG 576 -272 I_ee2
FLAG 592 -720 I_ee2
FLAG -336 -720 I_ee1
FLAG 1440 -976 +Vcc
FLAG 1440 -736 -Vcc
FLAG 1648 -848 V_o
FLAG -16 -64 -Vcc
FLAG 1776 -240 I_ee1
FLAG 864 -912 V_o2
FLAG 320 -912 V_o1
FLAG 1152 -1184 +Vcc
FLAG 1152 -816 -Vcc
FLAG -1440 -1152 +Vcc
FLAG -1168 -1200 +Vcc
FLAG -1168 -784 -Vcc
FLAG -1440 -784 -Vcc
FLAG -1600 -928 Vod+
FLAG -1024 -896 V_o_fet
FLAG 1776 -768 0
SYMBOL npn 1712 48 R0
SYMATTR InstName Q2
SYMATTR Value BC547B
SYMBOL voltage -64 -1488 R0
WINDOW 123 0 0 Left 0
WINDOW 39 0 0 Left 0
SYMATTR InstName V1
SYMATTR Value -12
SYMBOL voltage 96 -1488 R0
WINDOW 123 0 0 Left 0
WINDOW 39 0 0 Left 0
SYMATTR InstName V2
SYMATTR Value 12
SYMBOL npn 1408 48 R0
SYMATTR InstName Q1
SYMATTR Value BC547B
SYMBOL npn 1712 -176 R0
SYMATTR InstName Q3
SYMATTR Value BC547B
SYMBOL res 1456 -224 R0
SYMATTR InstName R1
SYMATTR Value 24k
SYMBOL npn -144 -944 M0
SYMATTR InstName Q4
SYMATTR Value BC547B
SYMBOL npn -528 -944 R0
SYMATTR InstName Q5
SYMATTR Value BC547B
SYMBOL res -224 -1088 R0
SYMATTR InstName R2
SYMATTR Value 12k
SYMBOL voltage 432 -1504 R0
WINDOW 123 0 0 Left 0
WINDOW 39 0 0 Left 0
SYMATTR InstName V5
SYMATTR Value SINE(0 1m 50 0 0 0)
SYMBOL res 448 -1504 R90
WINDOW 0 0 56 VBottom 2
WINDOW 3 32 56 VTop 2
SYMATTR InstName R4
SYMATTR Value 1
SYMBOL res -320 -816 R90
WINDOW 0 0 56 VBottom 2
WINDOW 3 32 56 VTop 2
SYMATTR InstName R9
SYMATTR Value 200
SYMBOL res -240 -816 R90
WINDOW 0 0 56 VBottom 2
WINDOW 3 32 56 VTop 2
SYMATTR InstName R10
SYMATTR Value 200
SYMBOL npn 784 -960 M0
SYMATTR InstName Q7
SYMATTR Value BC547B
SYMBOL npn 400 -960 R0
SYMATTR InstName Q8
SYMATTR Value BC547B
SYMBOL res 704 -1104 R0
SYMATTR InstName R5
SYMATTR Value 12k
SYMBOL res 608 -832 R90
WINDOW 0 0 56 VBottom 2
WINDOW 3 32 56 VTop 2
SYMATTR InstName R6
SYMATTR Value 200
SYMBOL res 688 -832 R90
WINDOW 0 0 56 VBottom 2
WINDOW 3 32 56 VTop 2
SYMATTR InstName R7
SYMATTR Value 200
SYMBOL res -480 -1088 R0
SYMATTR InstName R8
SYMATTR Value 12k
SYMBOL nmos 3232 -560 R0
SYMATTR InstName M1
SYMATTR Value BS170
SYMBOL nmos 3104 -64 R0
SYMATTR InstName M2
SYMATTR Value BS170
SYMBOL nmos 2848 -64 R0
SYMATTR InstName M3
SYMATTR Value BS170
SYMBOL res 2880 -208 R0
SYMATTR InstName R3
SYMATTR Value 20k
SYMBOL nmos 2976 -560 R0
SYMATTR InstName M4
SYMATTR Value BS170
SYMBOL res 3008 -704 R0
SYMATTR InstName R12
SYMATTR Value 1k
SYMBOL res 3264 -704 R0
SYMATTR InstName R13
SYMATTR Value 1k
SYMBOL res 3120 -432 R90
WINDOW 0 0 56 VBottom 2
WINDOW 3 32 56 VTop 2
SYMATTR InstName R14
SYMATTR Value 1k
SYMBOL res 3296 -432 R90
WINDOW 0 0 56 VBottom 2
WINDOW 3 32 56 VTop 2
SYMATTR InstName R15
SYMATTR Value 1k
SYMBOL res -512 -912 R90
WINDOW 0 0 56 VBottom 2
WINDOW 3 32 56 VTop 2
SYMATTR InstName R16
SYMATTR Value 1
SYMBOL res -48 -912 R90
WINDOW 0 0 56 VBottom 2
WINDOW 3 32 56 VTop 2
SYMATTR InstName R17
SYMATTR Value 1
SYMBOL res 416 -928 R90
WINDOW 0 0 56 VBottom 2
WINDOW 3 32 56 VTop 2
SYMATTR InstName R19
SYMATTR Value 1
SYMBOL res 880 -928 R90
WINDOW 0 0 56 VBottom 2
WINDOW 3 32 56 VTop 2
SYMATTR InstName R20
SYMATTR Value 1
SYMBOL npn -320 -272 R0
SYMATTR InstName Q11
SYMATTR Value BC547B
SYMBOL npn -624 -272 R0
SYMATTR InstName Q12
SYMATTR Value BC547B
SYMBOL res -576 -544 R0
SYMATTR InstName R21
SYMATTR Value 22k
SYMBOL npn 512 -272 R0
SYMATTR InstName Q13
SYMATTR Value BC547C
SYMBOL npn 1376 -976 R0
SYMATTR InstName Q14
SYMATTR Value BC547B
SYMBOL res 1424 -832 R0
SYMATTR InstName R22
SYMATTR Value 35
SYMBOL res -576 -192 R0
SYMATTR InstName R23
SYMATTR Value 1k
SYMBOL res -272 -192 R0
SYMATTR InstName R24
SYMATTR Value 1k
SYMBOL res 560 -192 R0
SYMATTR InstName R26
SYMATTR Value 1k
SYMBOL pnp 1088 -1056 R0
SYMATTR InstName Q6
SYMATTR Value BC557B
SYMBOL res 1136 -1200 R0
SYMATTR InstName R11
SYMATTR Value 1k
SYMBOL res 1136 -912 R0
SYMATTR InstName R25
SYMATTR Value 15k
SYMBOL nmos 3952 -80 R0
SYMATTR InstName M5
SYMATTR Value BS170
SYMBOL res 3712 -192 R0
SYMATTR InstName R27
SYMATTR Value 150k
SYMBOL res 3712 48 R0
SYMATTR InstName R30
SYMATTR Value 220k
SYMBOL cap 3728 -16 R90
WINDOW 0 0 32 VBottom 2
WINDOW 3 32 32 VTop 2
SYMATTR InstName C1
SYMATTR Value 1µ
SYMBOL res 3984 48 R0
SYMATTR InstName R31
SYMATTR Value 10k
SYMBOL nmos -1216 -1008 R0
SYMATTR InstName M10
SYMATTR Value BS170
SYMBOL res -1456 -1120 R0
SYMATTR InstName R36
SYMATTR Value 1500k
SYMBOL res -1456 -880 R0
SYMATTR InstName R37
SYMATTR Value 2290k
SYMBOL cap -1440 -944 R90
WINDOW 0 0 32 VBottom 2
WINDOW 3 32 32 VTop 2
SYMATTR InstName C2
SYMATTR Value 1µ
SYMBOL res -1184 -880 R0
SYMATTR InstName R38
SYMATTR Value 10k
SYMBOL res 1760 -864 R0
SYMATTR InstName R18
SYMATTR Value 35
SYMBOL res -1504 -944 R90
WINDOW 0 0 56 VBottom 2
WINDOW 3 32 56 VTop 2
SYMATTR InstName R28
SYMATTR Value 1
TEXT -480 -1392 Left 2 !.tran 0 1 0 0.001
TEXT -1096 208 Left 2 !.model BS170 VDMOS VTO=2.33 RG=270 RS=1.572 RD=1.436 RB=.768 KP=0.08 W=1 L=1 Cgdmax=20p Cgdmin=3p CGS=28p Cjo=35p Rds=1.2E8 IS=5p Bv=60 Ibv=10u Tt=161.6n
TEXT -1576 -544 Left 2 ;1/((1/1500e3)+(1/2290e3)) = 906332 ~ 900k
