Version 4
SHEET 1 1648 680
WIRE -64 -80 -80 -80
WIRE -48 -80 -64 -80
WIRE -64 -48 -64 -80
WIRE 208 32 192 32
WIRE 304 32 288 32
WIRE 464 48 432 48
WIRE 576 48 544 48
WIRE 1168 64 1024 64
WIRE -80 80 -128 80
WIRE 16 80 0 80
WIRE 80 80 16 80
WIRE -208 112 -208 80
WIRE 160 144 160 80
WIRE 192 144 192 32
WIRE 192 144 160 144
WIRE 208 144 192 144
WIRE 1024 144 1024 64
WIRE 1040 144 1024 144
WIRE 160 160 160 144
WIRE 304 160 304 32
WIRE 304 160 272 160
WIRE 352 160 304 160
WIRE 432 160 432 48
WIRE 464 160 432 160
WIRE 1168 160 1168 64
WIRE 1168 160 1104 160
WIRE 208 176 192 176
WIRE 576 176 576 48
WIRE 576 176 528 176
WIRE 608 176 576 176
WIRE 992 176 960 176
WIRE 1040 176 992 176
WIRE 464 192 448 192
WIRE 192 208 192 176
WIRE 448 224 448 192
WIRE 880 288 880 176
WIRE 1040 288 880 288
WIRE 1168 288 1168 160
WIRE 1168 288 1104 288
FLAG -64 -48 0
FLAG 32 -80 +12
FLAG -160 -80 -12
FLAG 240 192 -12
FLAG 240 128 +12
FLAG 192 208 0
FLAG 80 160 +12
FLAG 16 80 Vin
FLAG 496 208 -12
FLAG 496 144 +12
FLAG 448 224 0
FLAG 1072 192 -12
FLAG 1072 128 +12
FLAG 992 240 0
FLAG 1168 160 Vout
FLAG 608 176 Vmed
FLAG -208 112 0
FLAG 800 176 Vmed
SYMBOL Opamps\\opamp2 240 96 R0
SYMATTR InstName U1
SYMATTR Value TL072
SYMBOL voltage -64 -80 R90
WINDOW 0 -32 56 VBottom 2
WINDOW 3 32 56 VTop 2
WINDOW 123 0 0 Left 0
WINDOW 39 0 0 Left 0
SYMATTR InstName V1
SYMATTR Value 12
SYMBOL voltage 48 -80 R90
WINDOW 0 -32 56 VBottom 2
WINDOW 3 32 56 VTop 2
WINDOW 123 0 0 Left 0
WINDOW 39 0 0 Left 0
SYMATTR InstName V2
SYMATTR Value 12
SYMBOL res 176 64 R90
WINDOW 0 0 56 VBottom 2
WINDOW 3 32 56 VTop 2
SYMATTR InstName R1
SYMATTR Value 10k
SYMBOL res 176 144 R90
WINDOW 0 0 56 VBottom 2
WINDOW 3 32 56 VTop 2
SYMATTR InstName R2
SYMATTR Value 240k
SYMBOL res 304 16 R90
WINDOW 0 0 56 VBottom 2
WINDOW 3 32 56 VTop 2
SYMATTR InstName R3
SYMATTR Value 36k
SYMBOL voltage 16 80 R90
WINDOW 0 -36 38 VBottom 2
WINDOW 3 60 65 VBottom 2
WINDOW 123 13 77 VBottom 2
WINDOW 39 0 0 Left 0
SYMATTR InstName V_temp_sensor
SYMATTR Value SINE(0 0.5 50)
SYMATTR Value2 AC 0.5
SYMBOL Opamps\\opamp2 496 112 R0
SYMATTR InstName U2
SYMATTR Value TL072
SYMBOL res 560 32 R90
WINDOW 0 0 56 VBottom 2
WINDOW 3 32 56 VTop 2
SYMATTR InstName R4
SYMATTR Value 10k
SYMBOL res 448 144 R90
WINDOW 0 0 56 VBottom 2
WINDOW 3 32 56 VTop 2
SYMATTR InstName R5
SYMATTR Value 10k
SYMBOL Opamps\\opamp2 1072 96 R0
SYMATTR InstName U3
SYMATTR Value TL072
SYMBOL res 976 160 R90
WINDOW 0 0 56 VBottom 2
WINDOW 3 32 56 VTop 2
SYMATTR InstName R7
SYMATTR Value 11k
SYMBOL res 896 160 R90
WINDOW 0 0 56 VBottom 2
WINDOW 3 32 56 VTop 2
SYMATTR InstName R6
SYMATTR Value 11k
SYMBOL cap 976 176 R0
SYMATTR InstName C1
SYMATTR Value 0.1µ
SYMBOL cap 1104 272 R90
WINDOW 0 0 32 VBottom 2
WINDOW 3 32 32 VTop 2
SYMATTR InstName C2
SYMATTR Value 0.1µ
SYMBOL voltage -112 80 R90
WINDOW 0 -37 67 VBottom 2
WINDOW 3 -30 211 VTop 2
WINDOW 123 0 0 Left 0
WINDOW 39 0 0 Left 0
SYMATTR InstName V_noise
SYMATTR Value SINE(0 0.1 1000)
TEXT 184 -160 Left 2 !.tran 0 0.55 0.5 0.1
TEXT 160 -72 Left 2 !.inc TL072.mod
TEXT 640 384 Left 2 ;Sallen Key taken from http://sim.okawa-denshi.jp/en/OPseikiLowkeisan.htm
TEXT 184 -128 Left 2 !;.ac dec 100 1 10000
