Version 4
SHEET 1 1708 680
WIRE 16 -144 0 -144
WIRE 32 -144 16 -144
WIRE 16 -112 16 -144
WIRE 592 -16 448 -16
WIRE 448 64 448 -16
WIRE 464 64 448 64
WIRE 592 80 592 -16
WIRE 592 80 528 80
WIRE 48 96 32 96
WIRE 128 96 112 96
WIRE 208 96 128 96
WIRE 224 96 208 96
WIRE 416 96 384 96
WIRE 464 96 416 96
WIRE 32 128 32 96
WIRE 304 208 304 96
WIRE 464 208 304 208
WIRE 592 208 592 80
WIRE 592 208 528 208
FLAG 16 -112 0
FLAG 112 -144 +12
FLAG -80 -144 -12
FLAG 496 112 -12
FLAG 496 48 +12
FLAG 416 160 0
FLAG 592 80 Vout
FLAG 208 96 Vmed
FLAG 32 128 0
SYMBOL voltage 16 -144 R90
WINDOW 0 -32 56 VBottom 2
WINDOW 3 32 56 VTop 2
WINDOW 123 0 0 Left 0
WINDOW 39 0 0 Left 0
SYMATTR InstName V1
SYMATTR Value 12
SYMBOL voltage 128 -144 R90
WINDOW 0 -32 56 VBottom 2
WINDOW 3 32 56 VTop 2
WINDOW 123 0 0 Left 0
WINDOW 39 0 0 Left 0
SYMATTR InstName V2
SYMATTR Value 12
SYMBOL Opamps\\opamp2 496 16 R0
SYMATTR InstName U3
SYMATTR Value TL072
SYMBOL res 400 80 R90
WINDOW 0 0 56 VBottom 2
WINDOW 3 32 56 VTop 2
SYMATTR InstName R7
SYMATTR Value 11k
SYMBOL res 320 80 R90
WINDOW 0 0 56 VBottom 2
WINDOW 3 32 56 VTop 2
SYMATTR InstName R6
SYMATTR Value 11k
SYMBOL cap 400 96 R0
SYMATTR InstName C1
SYMATTR Value 0.1µ
SYMBOL cap 528 192 R90
WINDOW 0 0 32 VBottom 2
WINDOW 3 32 32 VTop 2
SYMATTR InstName C2
SYMATTR Value 0.1µ
SYMBOL voltage 144 96 R90
WINDOW 0 -37 67 VBottom 2
WINDOW 3 -30 211 VTop 2
WINDOW 123 -2 211 VTop 2
WINDOW 39 0 0 Left 0
SYMATTR InstName V_noise
SYMATTR Value ""
SYMATTR Value2 AC 1
TEXT 312 -96 Left 2 !;.tran 0 0.55 0.5 0.1
TEXT 304 -72 Left 2 !.inc TL072.mod
TEXT -168 320 Left 2 ;Sallen Key taken from http://sim.okawa-denshi.jp/en/OPseikiLowkeisan.htm
TEXT 312 -136 Left 2 !.ac dec 100 1 10000
