Version 4
SHEET 1 4264 680
WIRE 3200 -1136 3200 -1184
WIRE 1504 -1104 1504 -1152
WIRE 128 -1072 128 -1120
WIRE -1104 -1040 -1104 -1072
WIRE -1104 -1040 -1280 -1040
WIRE -944 -1040 -1104 -1040
WIRE 2688 -1040 2688 -1072
WIRE 3104 -1040 2688 -1040
WIRE 3472 -1040 3472 -1232
WIRE -1280 -1008 -1280 -1040
WIRE -944 -1008 -944 -1040
WIRE 992 -1008 992 -1040
WIRE 1408 -1008 992 -1008
WIRE 1776 -1008 1776 -1200
WIRE 2688 -1008 2688 -1040
WIRE 3712 -992 3616 -992
WIRE 3824 -992 3776 -992
WIRE 4192 -992 3888 -992
WIRE -384 -976 -384 -1008
WIRE 32 -976 -384 -976
WIRE 400 -976 400 -1168
WIRE 992 -976 992 -1008
WIRE 2016 -960 1920 -960
WIRE 2128 -960 2080 -960
WIRE 2416 -960 2416 -1072
WIRE 2416 -960 2192 -960
WIRE 2624 -960 2416 -960
WIRE 3104 -960 3104 -1040
WIRE 3200 -960 3200 -1056
WIRE 3200 -960 3104 -960
WIRE 3424 -960 3200 -960
WIRE -384 -944 -384 -976
WIRE 640 -928 608 -928
WIRE 720 -928 720 -1040
WIRE 720 -928 704 -928
WIRE 928 -928 720 -928
WIRE 1408 -928 1408 -1008
WIRE 1504 -928 1504 -1024
WIRE 1504 -928 1408 -928
WIRE 1728 -928 1504 -928
WIRE 3472 -928 3472 -944
WIRE 3616 -928 3616 -992
WIRE 3616 -928 3472 -928
WIRE -944 -896 -944 -928
WIRE -864 -896 -944 -896
WIRE -752 -896 -800 -896
WIRE -656 -896 -656 -1008
WIRE -656 -896 -688 -896
WIRE -448 -896 -656 -896
WIRE 32 -896 32 -976
WIRE 128 -896 128 -992
WIRE 128 -896 32 -896
WIRE 352 -896 128 -896
WIRE 1776 -896 1776 -912
WIRE 1920 -896 1920 -960
WIRE 1920 -896 1776 -896
WIRE 3200 -896 3200 -960
WIRE 3472 -896 3472 -928
WIRE -1280 -864 -1280 -928
WIRE -944 -864 -944 -896
WIRE 400 -864 400 -880
WIRE 544 -864 544 -928
WIRE 544 -864 400 -864
WIRE 560 -864 544 -864
WIRE 1504 -864 1504 -928
WIRE 1776 -864 1776 -896
WIRE 128 -832 128 -896
WIRE 400 -832 400 -864
WIRE 2688 -832 2688 -912
WIRE 2416 -816 2416 -960
WIRE 992 -800 992 -880
WIRE -1328 -784 -1424 -784
WIRE 720 -784 720 -928
WIRE -384 -768 -384 -848
WIRE -656 -752 -656 -896
WIRE 3984 -688 3984 -736
WIRE 4080 -688 3984 -688
WIRE -1280 -672 -1280 -768
WIRE -1232 -672 -1280 -672
WIRE -1120 -672 -1152 -672
WIRE -1072 -672 -1120 -672
WIRE -944 -672 -944 -768
WIRE -944 -672 -992 -672
WIRE 3984 -640 3984 -688
WIRE -1120 -544 -1120 -672
WIRE -1184 -144 -1424 -144
WIRE -1120 -16 -1120 -96
WIRE -1120 -16 -1280 -16
WIRE -1424 32 -1424 -144
WIRE -1120 32 -1120 -16
WIRE -1280 80 -1280 -16
WIRE -1280 80 -1488 80
WIRE -1184 80 -1280 80
WIRE -1424 176 -1424 128
WIRE -1280 176 -1424 176
WIRE -1120 176 -1120 128
WIRE -1120 176 -1280 176
WIRE -1280 208 -1280 176
FLAG -80 -1472 0
FLAG 80 -1472 0
FLAG -80 -1552 -Vcc
FLAG 80 -1552 +Vcc
FLAG 416 -1488 0
FLAG 336 -1568 Vin+
FLAG 128 -1120 +Vcc
FLAG 400 -1168 +Vcc
FLAG -656 -1088 +Vcc
FLAG -384 -1088 +Vcc
FLAG -1104 -1072 +Vcc
FLAG 1504 -1152 +Vcc
FLAG 1776 -1200 +Vcc
FLAG 720 -1120 +Vcc
FLAG 992 -1120 +Vcc
FLAG -1424 -784 Vin+
FLAG -1280 208 -Vcc
FLAG -1424 -224 +Vcc
FLAG -1120 -192 I_ee1
FLAG -1120 -544 I_ee1
FLAG -672 -544 -Vcc
FLAG -656 -672 -Vcc
FLAG -384 -688 -Vcc
FLAG 128 -752 -Vcc
FLAG 400 -752 -Vcc
FLAG 720 -704 -Vcc
FLAG 992 -720 -Vcc
FLAG 1504 -784 -Vcc
FLAG 1776 -784 -Vcc
FLAG -992 -784 Vin-
FLAG 3200 -1184 +Vcc
FLAG 3472 -1232 +Vcc
FLAG 2416 -1152 +Vcc
FLAG 2688 -1152 +Vcc
FLAG 4192 -992 Vout
FLAG 2416 -736 -Vcc
FLAG 2688 -752 -Vcc
FLAG 3200 -816 -Vcc
FLAG 3472 -816 -Vcc
FLAG 4080 -688 Vin-
FLAG 3984 -560 0
SYMBOL voltage -80 -1568 R0
WINDOW 123 0 0 Left 0
WINDOW 39 0 0 Left 0
SYMATTR InstName V1
SYMATTR Value -12
SYMBOL voltage 80 -1568 R0
WINDOW 123 0 0 Left 0
WINDOW 39 0 0 Left 0
SYMATTR InstName V2
SYMATTR Value 12
SYMBOL voltage 416 -1584 R0
WINDOW 123 24 44 Left 2
WINDOW 39 0 0 Left 0
SYMATTR Value2 AC 1m
SYMATTR InstName V3
SYMATTR Value SINE(0 10m 1000 0 0)
SYMBOL res 432 -1584 R90
WINDOW 0 0 56 VBottom 2
WINDOW 3 32 56 VTop 2
SYMATTR InstName R1
SYMATTR Value 1
SYMBOL nmos 352 -976 R0
SYMATTR InstName M1
SYMATTR Value BS170
SYMBOL res 112 -1088 R0
SYMATTR InstName R2
SYMATTR Value 2000k
SYMBOL res 112 -848 R0
SYMATTR InstName R3
SYMATTR Value 666k
SYMBOL res 384 -848 R0
SYMATTR InstName R4
SYMATTR Value 1k
SYMBOL npn -448 -944 R0
SYMATTR InstName Q1
SYMATTR Value BC547B
SYMBOL res -400 -1104 R0
SYMATTR InstName R5
SYMATTR Value 1000
SYMBOL res -400 -784 R0
SYMATTR InstName R6
SYMATTR Value 200
SYMBOL res -672 -768 R0
SYMATTR InstName R7
SYMATTR Value 666k
SYMBOL res -672 -1104 R0
SYMATTR InstName R8
SYMATTR Value 2000k
SYMBOL nmos -1328 -864 R0
SYMATTR InstName M2
SYMATTR Value BS170
SYMBOL res -960 -1024 R0
SYMATTR InstName R9
SYMATTR Value 12k
SYMBOL res -1296 -1024 R0
SYMATTR InstName R10
SYMATTR Value 12k
SYMBOL nmos -992 -864 R0
SYMATTR InstName M3
SYMATTR Value BS170
SYMBOL cap -688 -912 R90
WINDOW 0 0 32 VBottom 2
WINDOW 3 32 32 VTop 2
SYMATTR InstName C1
SYMATTR Value 1µ
SYMBOL nmos 1728 -1008 R0
SYMATTR InstName M4
SYMATTR Value BS170
SYMBOL res 1488 -1120 R0
SYMATTR InstName R11
SYMATTR Value 2000k
SYMBOL res 1488 -880 R0
SYMATTR InstName R12
SYMATTR Value 666k
SYMBOL res 1760 -880 R0
SYMATTR InstName R13
SYMATTR Value 1k
SYMBOL npn 928 -976 R0
SYMATTR InstName Q2
SYMATTR Value BC547B
SYMBOL res 976 -1136 R0
SYMATTR InstName R14
SYMATTR Value 1000
SYMBOL res 976 -816 R0
SYMATTR InstName R15
SYMATTR Value 200
SYMBOL res 704 -800 R0
SYMATTR InstName R16
SYMATTR Value 666k
SYMBOL res 704 -1136 R0
SYMATTR InstName R17
SYMATTR Value 2000k
SYMBOL res -1136 -688 R90
WINDOW 0 0 56 VBottom 2
WINDOW 3 32 56 VTop 2
SYMATTR InstName R18
SYMATTR Value 1k
SYMBOL res -976 -688 R90
WINDOW 0 0 56 VBottom 2
WINDOW 3 32 56 VTop 2
SYMATTR InstName R19
SYMATTR Value 1k
SYMBOL npn -1184 32 R0
SYMATTR InstName Q3
SYMATTR Value BC547B
SYMBOL npn -1488 32 R0
SYMATTR InstName Q4
SYMATTR Value BC547B
SYMBOL npn -1184 -192 R0
SYMATTR InstName Q5
SYMATTR Value BC547B
SYMBOL res -1440 -240 R0
SYMATTR InstName R20
SYMATTR Value 22k
SYMBOL cap 608 -944 R90
WINDOW 0 0 32 VBottom 2
WINDOW 3 32 32 VTop 2
SYMATTR InstName C2
SYMATTR Value 1µ
SYMBOL cap 2080 -976 R90
WINDOW 0 0 32 VBottom 2
WINDOW 3 32 32 VTop 2
SYMATTR InstName C3
SYMATTR Value 1µ
SYMBOL cap -800 -912 R90
WINDOW 0 0 32 VBottom 2
WINDOW 3 32 32 VTop 2
SYMATTR InstName C4
SYMATTR Value 1µ
SYMBOL cap 704 -944 R90
WINDOW 0 0 32 VBottom 2
WINDOW 3 32 32 VTop 2
SYMATTR InstName C5
SYMATTR Value 1µ
SYMBOL cap 2192 -976 R90
WINDOW 0 0 32 VBottom 2
WINDOW 3 32 32 VTop 2
SYMATTR InstName C6
SYMATTR Value 1µ
SYMBOL nmos 3424 -1040 R0
SYMATTR InstName M5
SYMATTR Value BS170
SYMBOL res 3184 -1152 R0
SYMATTR InstName R21
SYMATTR Value 2000k
SYMBOL res 3184 -912 R0
SYMATTR InstName R22
SYMATTR Value 666k
SYMBOL res 3456 -912 R0
SYMATTR InstName R23
SYMATTR Value 1k
SYMBOL npn 2624 -1008 R0
SYMATTR InstName Q6
SYMATTR Value BC547B
SYMBOL res 2672 -1168 R0
SYMATTR InstName R24
SYMATTR Value 400
SYMBOL res 2672 -848 R0
SYMATTR InstName R25
SYMATTR Value 200
SYMBOL res 2400 -832 R0
SYMATTR InstName R26
SYMATTR Value 2000k
SYMBOL res 2400 -1168 R0
SYMATTR InstName R27
SYMATTR Value 1000k
SYMBOL cap 3776 -1008 R90
WINDOW 0 0 32 VBottom 2
WINDOW 3 32 32 VTop 2
SYMATTR InstName C7
SYMATTR Value 1µ
SYMBOL cap 3888 -1008 R90
WINDOW 0 0 32 VBottom 2
WINDOW 3 32 32 VTop 2
SYMATTR InstName C8
SYMATTR Value 1µ
SYMBOL res 3968 -832 R0
SYMATTR InstName R28
SYMATTR Value 10k
SYMBOL res 3968 -656 R0
SYMATTR InstName R29
SYMATTR Value 1k
TEXT -280 -1264 Left 2 !;tran 0 .01 0 0.01
TEXT -888 -1760 Left 2 !.model BS170 VDMOS VTO=2.33 RG=270 RS=1.572 RD=1.436 RB=.768 KP=0.08 W=1 L=1 Cgdmax=20p Cgdmin=3p CGS=28p Cjo=35p Rds=1.2E8 IS=5p Bv=60 Ibv=10u Tt=161.6n
TEXT -272 -1312 Left 2 !.ac dec 10 1 500k
TEXT 72 -1344 Left 2 !.step oct param R 1k 100k 1
TEXT 80 -1296 Left 2 !.op
