Version 4
SHEET 1 3256 748
WIRE 1008 -240 976 -240
WIRE 1120 -240 1088 -240
WIRE 432 -144 416 -144
WIRE 528 -144 512 -144
WIRE 1040 -112 1040 -128
WIRE 416 -96 416 -144
WIRE 976 -96 976 -240
WIRE 1008 -96 976 -96
WIRE 1120 -80 1120 -240
WIRE 1120 -80 1072 -80
WIRE 1200 -80 1120 -80
WIRE 1008 -64 832 -64
WIRE 1536 -48 1520 -48
WIRE 1040 -32 1040 -48
WIRE 2144 -16 2064 -16
WIRE 2256 -16 2224 -16
WIRE 2960 0 2944 0
WIRE 976 16 976 -96
WIRE 448 32 368 32
WIRE 512 32 448 32
WIRE 1200 64 1200 -80
WIRE 1248 64 1200 64
WIRE 1328 80 1328 64
WIRE 1440 80 1440 -48
WIRE 1440 80 1328 80
WIRE 1456 80 1440 80
WIRE 1536 96 1536 -48
WIRE 1536 96 1520 96
WIRE 1600 96 1536 96
WIRE 2176 96 2176 80
WIRE 976 112 976 96
WIRE 1424 112 1328 112
WIRE 1456 112 1424 112
WIRE 2064 112 2064 -16
WIRE 2064 112 2048 112
WIRE 2144 112 2064 112
WIRE 2256 128 2256 -16
WIRE 2256 128 2208 128
WIRE 2304 128 2256 128
WIRE 2752 128 2752 112
WIRE 2864 128 2864 0
WIRE 2864 128 2752 128
WIRE 2880 128 2864 128
WIRE 368 144 368 112
WIRE 512 144 512 112
WIRE 1248 144 1200 144
WIRE 1328 144 1328 112
WIRE 1424 144 1424 112
WIRE 2144 144 2112 144
WIRE 2960 144 2960 0
WIRE 2960 144 2944 144
WIRE 2880 160 2848 160
WIRE 368 176 368 144
WIRE 512 176 512 144
WIRE 2176 176 2176 160
WIRE 2112 192 2112 144
WIRE 2848 192 2848 160
WIRE 1968 208 1936 208
WIRE 2064 208 2064 112
WIRE 2064 208 2048 208
WIRE 448 256 368 256
WIRE 512 256 448 256
WIRE 976 256 976 192
WIRE 1008 256 976 256
WIRE 1136 256 1088 256
WIRE 1200 256 1200 144
WIRE 1200 256 1136 256
WIRE 448 304 448 256
WIRE 1040 368 1040 352
WIRE 976 384 976 256
WIRE 1008 384 976 384
WIRE 1136 400 1136 256
WIRE 1136 400 1072 400
WIRE 1008 416 832 416
WIRE 1040 448 1040 432
FLAG 416 -96 0
FLAG 336 -144 -12
FLAG 512 -144 +12
FLAG 608 -144 +15
FLAG 448 32 +15
FLAG 1424 224 0
FLAG 256 -144 -15
FLAG 1488 64 +15
FLAG 1488 128 -15
FLAG 512 144 V2
FLAG 368 144 V1
FLAG 832 -64 V2
FLAG 832 416 V1
FLAG 1040 -128 +15
FLAG 1040 -32 -15
FLAG 1040 352 +15
FLAG 1040 448 -15
FLAG 2176 80 +15
FLAG 2112 192 0
FLAG 2176 176 -15
FLAG 448 304 0
FLAG 2304 128 V_o2
FLAG 2912 112 +15
FLAG 2912 176 -15
FLAG 2848 192 0
FLAG 1600 96 V_o1
FLAG 1968 112 V_o1
FLAG 2672 112 V_o2
FLAG 1936 208 0
SYMBOL voltage 432 -144 R90
WINDOW 0 -32 56 VBottom 2
WINDOW 3 32 56 VTop 2
SYMATTR InstName V1
SYMATTR Value 12
SYMBOL voltage 528 -144 R90
WINDOW 0 -32 56 VBottom 2
WINDOW 3 32 56 VTop 2
SYMATTR InstName V2
SYMATTR Value 12
SYMBOL voltage 624 -144 R90
WINDOW 0 -32 56 VBottom 2
WINDOW 3 32 56 VTop 2
SYMATTR InstName V3
SYMATTR Value 3
SYMBOL res 352 16 R0
SYMATTR InstName R1
SYMATTR Value 680
SYMBOL res 496 16 R0
SYMATTR InstName R2
SYMATTR Value 680
SYMBOL res 352 160 R0
SYMATTR InstName R3
SYMATTR Value {x}
SYMBOL res 496 160 R0
SYMATTR InstName R4
SYMATTR Value 680
SYMBOL res 1344 48 R90
WINDOW 0 0 56 VBottom 2
WINDOW 3 32 56 VTop 2
SYMATTR InstName R9
SYMATTR Value 10k
SYMBOL res 1344 128 R90
WINDOW 0 0 56 VBottom 2
WINDOW 3 32 56 VTop 2
SYMATTR InstName R10
SYMATTR Value 10k
SYMBOL res 1440 240 R180
WINDOW 0 36 76 Left 2
WINDOW 3 36 40 Left 2
SYMATTR InstName R11
SYMATTR Value 10k
SYMBOL res 1424 -32 R270
WINDOW 0 32 56 VTop 2
WINDOW 3 0 56 VBottom 2
SYMATTR InstName R12
SYMATTR Value 10k
SYMBOL Opamps\\opamp2 1488 32 R0
SYMATTR InstName U3
SYMATTR Value TL072
SYMBOL voltage 352 -144 R90
WINDOW 0 -32 56 VBottom 2
WINDOW 3 32 56 VTop 2
SYMATTR InstName V4
SYMATTR Value 3
SYMBOL OpAmps\\opamp2 1040 -144 R0
SYMATTR InstName U1
SYMATTR Value TL072
SYMBOL OpAmps\\opamp2 1040 336 R0
SYMATTR InstName U2
SYMATTR Value TL072
SYMBOL res 1104 -256 R90
WINDOW 0 0 56 VBottom 2
WINDOW 3 32 56 VTop 2
SYMATTR InstName R5
SYMATTR Value 100k
SYMBOL res 1104 240 R90
WINDOW 0 0 56 VBottom 2
WINDOW 3 32 56 VTop 2
SYMATTR InstName R6
SYMATTR Value 100k
SYMBOL res 960 0 R0
SYMATTR InstName R7
SYMATTR Value 10k
SYMBOL res 960 96 R0
SYMATTR InstName R8
SYMATTR Value 10k
SYMBOL OpAmps\\opamp2 2176 64 R0
SYMATTR InstName U7
SYMATTR Value TL072
SYMBOL res 2064 96 R90
WINDOW 0 0 56 VBottom 2
WINDOW 3 32 56 VTop 2
SYMATTR InstName R20
SYMATTR Value 1.1k
SYMBOL res 2064 192 R90
WINDOW 0 0 56 VBottom 2
WINDOW 3 32 56 VTop 2
SYMATTR InstName R21
SYMATTR Value 180k
SYMBOL res 2240 -32 R90
WINDOW 0 0 56 VBottom 2
WINDOW 3 32 56 VTop 2
SYMATTR InstName R22
SYMATTR Value 1.1k
SYMBOL res 2768 96 R90
WINDOW 0 0 56 VBottom 2
WINDOW 3 32 56 VTop 2
SYMATTR InstName R13
SYMATTR Value 10k
SYMBOL res 2848 16 R270
WINDOW 0 32 56 VTop 2
WINDOW 3 0 56 VBottom 2
SYMATTR InstName R16
SYMATTR Value 110k
SYMBOL Opamps\\opamp2 2912 80 R0
SYMATTR InstName U4
SYMATTR Value TL072
TEXT 424 -256 Left 2 !.op
TEXT 424 -288 Left 2 !.inc TL072.mod
TEXT 2024 304 Left 2 ;add offset  -15 *R22/R21\n \nR21 can be a potentiometer
TEXT 1280 336 Left 2 ;instrumentation amplifier\nv_0 = (1+r2/r1)(v1-v2)\nchoose r1 = 10k, r2 = 6.2k, r = 10k
TEXT 336 400 Left 2 ;wheatstone bridge
TEXT 400 -328 Left 2 !.step param x 680 700 1
