Version 4
SHEET 1 2152 732
WIRE 832 -144 800 -144
WIRE 864 -144 832 -144
WIRE 224 -128 208 -128
WIRE 320 -128 304 -128
WIRE 208 -80 208 -128
WIRE 944 -48 944 -144
WIRE 1120 -48 944 -48
WIRE 832 -16 832 -144
WIRE 864 -16 832 -16
WIRE 944 0 944 -48
WIRE 944 0 928 0
WIRE 480 32 400 32
WIRE 544 32 480 32
WIRE 1360 48 1344 48
WIRE 1632 64 1600 64
WIRE 1728 64 1712 64
WIRE 800 80 800 -144
WIRE 1472 80 1424 80
WIRE 1936 80 1920 80
WIRE 2032 80 2016 80
WIRE 1424 112 1424 80
WIRE 1120 128 1120 -48
WIRE 400 144 400 112
WIRE 544 144 544 112
WIRE 1200 144 1200 128
WIRE 1264 144 1264 48
WIRE 1264 144 1200 144
WIRE 1280 144 1264 144
WIRE 1360 160 1360 48
WIRE 1360 160 1344 160
WIRE 1472 160 1360 160
WIRE 1552 160 1552 80
WIRE 1600 160 1600 64
WIRE 1600 160 1552 160
WIRE 1632 160 1600 160
WIRE 400 176 400 144
WIRE 544 176 544 144
WIRE 1248 176 1200 176
WIRE 1280 176 1248 176
WIRE 1728 176 1728 64
WIRE 1728 176 1696 176
WIRE 1808 176 1728 176
WIRE 1920 176 1920 80
WIRE 1920 176 1888 176
WIRE 1936 176 1920 176
WIRE 1632 192 1584 192
WIRE 2032 192 2032 80
WIRE 2032 192 2000 192
WIRE 2080 192 2032 192
WIRE 1200 208 1200 176
WIRE 1936 208 1904 208
WIRE 1248 224 1248 176
WIRE 848 240 800 240
WIRE 864 240 848 240
WIRE 960 240 944 240
WIRE 480 256 400 256
WIRE 544 256 480 256
WIRE 1584 256 1584 192
WIRE 1904 272 1904 208
WIRE 960 320 960 240
WIRE 1120 320 1120 208
WIRE 1120 320 960 320
WIRE 848 352 848 240
WIRE 864 352 848 352
WIRE 960 368 960 320
WIRE 960 368 928 368
WIRE 1408 432 1248 432
WIRE 1248 464 1248 432
WIRE 1280 464 1248 464
WIRE 1408 480 1408 432
WIRE 1408 480 1344 480
WIRE 1280 496 1248 496
WIRE 1248 560 1248 496
WIRE 1248 560 1184 560
WIRE 1264 560 1248 560
FLAG 208 -80 0
FLAG 128 -128 -12
FLAG 304 -128 +12
FLAG 400 -128 +15
FLAG 864 16 V2
FLAG 864 384 V1
FLAG 480 32 +15
FLAG 480 256 0
FLAG 1248 304 0
FLAG 48 -128 -15
FLAG 896 -32 +15
FLAG 1312 128 +15
FLAG 896 336 +15
FLAG 896 32 -15
FLAG 896 400 -15
FLAG 1312 192 -15
FLAG 544 144 V2
FLAG 400 144 V1
FLAG 1264 640 +15
FLAG 1184 640 0
FLAG 1408 480 Voffset
FLAG 1584 256 0
FLAG 1904 272 0
FLAG 2080 192 Vout
FLAG 1664 144 +15
FLAG 1968 160 +15
FLAG 1312 448 +15
FLAG 1664 208 -15
FLAG 1968 224 -15
FLAG 1312 512 -15
FLAG 1424 112 0
SYMBOL voltage 224 -128 R90
WINDOW 0 -32 56 VBottom 2
WINDOW 3 32 56 VTop 2
SYMATTR InstName V1
SYMATTR Value 12
SYMBOL voltage 320 -128 R90
WINDOW 0 -32 56 VBottom 2
WINDOW 3 32 56 VTop 2
SYMATTR InstName V2
SYMATTR Value 12
SYMBOL voltage 416 -128 R90
WINDOW 0 -32 56 VBottom 2
WINDOW 3 32 56 VTop 2
SYMATTR InstName V3
SYMATTR Value 3
SYMBOL res 384 16 R0
SYMATTR InstName R1
SYMATTR Value 680
SYMBOL res 528 16 R0
SYMATTR InstName R2
SYMATTR Value 680
SYMBOL res 384 160 R0
SYMATTR InstName R3
SYMATTR Value 680
SYMBOL res 528 160 R0
SYMATTR InstName R4
SYMATTR Value 680
SYMBOL res 784 64 R0
SYMATTR InstName R5
SYMATTR Value 1k
SYMBOL res 784 144 R0
SYMATTR InstName R6
SYMATTR Value 1k
SYMBOL res 960 224 R90
WINDOW 0 0 56 VBottom 2
WINDOW 3 32 56 VTop 2
SYMATTR InstName R8
SYMATTR Value 5.1k
SYMBOL res 1216 112 R90
WINDOW 0 0 56 VBottom 2
WINDOW 3 32 56 VTop 2
SYMATTR InstName R9
SYMATTR Value 10k
SYMBOL res 1216 192 R90
WINDOW 0 0 56 VBottom 2
WINDOW 3 32 56 VTop 2
SYMATTR InstName R10
SYMATTR Value 10k
SYMBOL res 1264 320 R180
WINDOW 0 36 76 Left 2
WINDOW 3 36 40 Left 2
SYMATTR InstName R11
SYMATTR Value 10k
SYMBOL res 1248 64 R270
WINDOW 0 32 56 VTop 2
WINDOW 3 0 56 VBottom 2
SYMATTR InstName R12
SYMATTR Value 10k
SYMBOL Opamps\\opamp2 896 -64 R0
SYMATTR InstName U1
SYMATTR Value TL072
SYMBOL Opamps\\opamp2 896 304 R0
SYMATTR InstName U2
SYMATTR Value TL072
SYMBOL Opamps\\opamp2 1312 96 R0
SYMATTR InstName U3
SYMATTR Value TL072
SYMBOL res 960 -160 R90
WINDOW 0 0 56 VBottom 2
WINDOW 3 32 56 VTop 2
SYMATTR InstName R7
SYMATTR Value 5.1k
SYMBOL voltage 144 -128 R90
WINDOW 0 -32 56 VBottom 2
WINDOW 3 32 56 VTop 2
SYMATTR InstName V4
SYMATTR Value 3
SYMBOL Opamps\\opamp2 1312 416 R0
SYMATTR InstName U4
SYMATTR Value TL072
SYMBOL res 1168 544 R0
SYMATTR InstName R13
SYMATTR Value 1k
SYMBOL res 1248 544 R0
SYMATTR InstName R14
SYMATTR Value 1000k
SYMBOL Opamps\\opamp2 1664 112 R0
SYMATTR InstName U5
SYMATTR Value TL072
SYMBOL res 1568 144 R90
WINDOW 0 0 56 VBottom 2
WINDOW 3 32 56 VTop 2
SYMATTR InstName R15
SYMATTR Value 10k
SYMBOL res 1568 64 R90
WINDOW 0 0 56 VBottom 2
WINDOW 3 32 56 VTop 2
SYMATTR InstName R16
SYMATTR Value 10k
SYMBOL res 1728 48 R90
WINDOW 0 0 56 VBottom 2
WINDOW 3 32 56 VTop 2
SYMATTR InstName R17
SYMATTR Value 10k
SYMBOL res 1904 160 R90
WINDOW 0 0 56 VBottom 2
WINDOW 3 32 56 VTop 2
SYMATTR InstName R18
SYMATTR Value 10k
SYMBOL res 2032 64 R90
WINDOW 0 0 56 VBottom 2
WINDOW 3 32 56 VTop 2
SYMATTR InstName R19
SYMATTR Value 200k
SYMBOL Opamps\\opamp2 1968 128 R0
SYMATTR InstName U6
SYMATTR Value TL072
TEXT -6 456 Left 2 !.tran 0 1 0.5 0.1
TEXT 384 424 Left 2 !.inc TL072.mod
